/*--------------------------------*- C++ -*----------------------------------*\
| =========                 |                                                 |
| \\      /  F ield         | OpenFOAM: The Open Source CFD Toolbox           |
|  \\    /   O peration     | Version:                                        |
|   \\  /    A nd           | Website:  www.openfoam.com                      |
|    \\/     M anipulation  |                                                 |
\*---------------------------------------------------------------------------*/
FoamFile
{
    version     2.0;
    format      ascii;
    class       dictionary;
    location    "constant";
    object      waveDict;
}
// * * * * * * * * * * * * * * * * * * * * * * * * * * * * * * * * * * * * * //

waveType        irregular;

genAbs          1;

absDir          0.0;

nPaddles        1;

wavePeriods
1000
(
9.980040e+00
9.940358e+00
9.900990e+00
9.861933e+00
9.823183e+00
9.784736e+00
9.746589e+00
9.708738e+00
9.671180e+00
9.633911e+00
9.596929e+00
9.560229e+00
9.523810e+00
9.487666e+00
9.451796e+00
9.416196e+00
9.380863e+00
9.345794e+00
9.310987e+00
9.276438e+00
9.242144e+00
9.208103e+00
9.174312e+00
9.140768e+00
9.107468e+00
9.074410e+00
9.041591e+00
9.009009e+00
8.976661e+00
8.944544e+00
8.912656e+00
8.880995e+00
8.849558e+00
8.818342e+00
8.787346e+00
8.756567e+00
8.726003e+00
8.695652e+00
8.665511e+00
8.635579e+00
8.605852e+00
8.576329e+00
8.547009e+00
8.517888e+00
8.488964e+00
8.460237e+00
8.431703e+00
8.403361e+00
8.375209e+00
8.347245e+00
8.319468e+00
8.291874e+00
8.264463e+00
8.237232e+00
8.210181e+00
8.183306e+00
8.156607e+00
8.130081e+00
8.103728e+00
8.077544e+00
8.051530e+00
8.025682e+00
8.000000e+00
7.974482e+00
7.949126e+00
7.923930e+00
7.898894e+00
7.874016e+00
7.849294e+00
7.824726e+00
7.800312e+00
7.776050e+00
7.751938e+00
7.727975e+00
7.704160e+00
7.680492e+00
7.656968e+00
7.633588e+00
7.610350e+00
7.587253e+00
7.564297e+00
7.541478e+00
7.518797e+00
7.496252e+00
7.473842e+00
7.451565e+00
7.429421e+00
7.407407e+00
7.385524e+00
7.363770e+00
7.342144e+00
7.320644e+00
7.299270e+00
7.278020e+00
7.256894e+00
7.235890e+00
7.215007e+00
7.194245e+00
7.173601e+00
7.153076e+00
7.132668e+00
7.112376e+00
7.092199e+00
7.072136e+00
7.052186e+00
7.032349e+00
7.012623e+00
6.993007e+00
6.973501e+00
6.954103e+00
6.934813e+00
6.915629e+00
6.896552e+00
6.877579e+00
6.858711e+00
6.839945e+00
6.821282e+00
6.802721e+00
6.784261e+00
6.765900e+00
6.747638e+00
6.729475e+00
6.711409e+00
6.693440e+00
6.675567e+00
6.657790e+00
6.640106e+00
6.622517e+00
6.605020e+00
6.587615e+00
6.570302e+00
6.553080e+00
6.535948e+00
6.518905e+00
6.501951e+00
6.485084e+00
6.468305e+00
6.451613e+00
6.435006e+00
6.418485e+00
6.402049e+00
6.385696e+00
6.369427e+00
6.353240e+00
6.337136e+00
6.321113e+00
6.305170e+00
6.289308e+00
6.273526e+00
6.257822e+00
6.242197e+00
6.226650e+00
6.211180e+00
6.195787e+00
6.180470e+00
6.165228e+00
6.150062e+00
6.134969e+00
6.119951e+00
6.105006e+00
6.090134e+00
6.075334e+00
6.060606e+00
6.045949e+00
6.031363e+00
6.016847e+00
6.002401e+00
5.988024e+00
5.973716e+00
5.959476e+00
5.945303e+00
5.931198e+00
5.917160e+00
5.903188e+00
5.889282e+00
5.875441e+00
5.861665e+00
5.847953e+00
5.834306e+00
5.820722e+00
5.807201e+00
5.793743e+00
5.780347e+00
5.767013e+00
5.753740e+00
5.740528e+00
5.727377e+00
5.714286e+00
5.701254e+00
5.688282e+00
5.675369e+00
5.662514e+00
5.649718e+00
5.636979e+00
5.624297e+00
5.611672e+00
5.599104e+00
5.586592e+00
5.574136e+00
5.561735e+00
5.549390e+00
5.537099e+00
5.524862e+00
5.512679e+00
5.500550e+00
5.488474e+00
5.476451e+00
5.464481e+00
5.452563e+00
5.440696e+00
5.428882e+00
5.417118e+00
5.405405e+00
5.393743e+00
5.382131e+00
5.370569e+00
5.359057e+00
5.347594e+00
5.336179e+00
5.324814e+00
5.313496e+00
5.302227e+00
5.291005e+00
5.279831e+00
5.268704e+00
5.257624e+00
5.246590e+00
5.235602e+00
5.224660e+00
5.213764e+00
5.202914e+00
5.192108e+00
5.181347e+00
5.170631e+00
5.159959e+00
5.149331e+00
5.138746e+00
5.128205e+00
5.117707e+00
5.107252e+00
5.096840e+00
5.086470e+00
5.076142e+00
5.065856e+00
5.055612e+00
5.045409e+00
5.035247e+00
5.025126e+00
5.015045e+00
5.005005e+00
4.995005e+00
4.985045e+00
4.975124e+00
4.965243e+00
4.955401e+00
4.945598e+00
4.935834e+00
4.926108e+00
4.916421e+00
4.906771e+00
4.897160e+00
4.887586e+00
4.878049e+00
4.868549e+00
4.859086e+00
4.849661e+00
4.840271e+00
4.830918e+00
4.821601e+00
4.812320e+00
4.803074e+00
4.793864e+00
4.784689e+00
4.775549e+00
4.766444e+00
4.757374e+00
4.748338e+00
4.739336e+00
4.730369e+00
4.721435e+00
4.712535e+00
4.703669e+00
4.694836e+00
4.686036e+00
4.677268e+00
4.668534e+00
4.659832e+00
4.651163e+00
4.642526e+00
4.633920e+00
4.625347e+00
4.616805e+00
4.608295e+00
4.599816e+00
4.591368e+00
4.582951e+00
4.574565e+00
4.566210e+00
4.557885e+00
4.549591e+00
4.541326e+00
4.533092e+00
4.524887e+00
4.516712e+00
4.508566e+00
4.500450e+00
4.492363e+00
4.484305e+00
4.476276e+00
4.468275e+00
4.460303e+00
4.452360e+00
4.444444e+00
4.436557e+00
4.428698e+00
4.420866e+00
4.413063e+00
4.405286e+00
4.397537e+00
4.389816e+00
4.382121e+00
4.374453e+00
4.366812e+00
4.359198e+00
4.351610e+00
4.344049e+00
4.336513e+00
4.329004e+00
4.321521e+00
4.314064e+00
4.306632e+00
4.299226e+00
4.291845e+00
4.284490e+00
4.277160e+00
4.269855e+00
4.262575e+00
4.255319e+00
4.248088e+00
4.240882e+00
4.233700e+00
4.226543e+00
4.219409e+00
4.212300e+00
4.205214e+00
4.198153e+00
4.191115e+00
4.184100e+00
4.177109e+00
4.170142e+00
4.163197e+00
4.156276e+00
4.149378e+00
4.142502e+00
4.135649e+00
4.128819e+00
4.122012e+00
4.115226e+00
4.108463e+00
4.101723e+00
4.095004e+00
4.088307e+00
4.081633e+00
4.074980e+00
4.068348e+00
4.061738e+00
4.055150e+00
4.048583e+00
4.042037e+00
4.035513e+00
4.029009e+00
4.022526e+00
4.016064e+00
4.009623e+00
4.003203e+00
3.996803e+00
3.990423e+00
3.984064e+00
3.977725e+00
3.971406e+00
3.965107e+00
3.958828e+00
3.952569e+00
3.946330e+00
3.940110e+00
3.933910e+00
3.927730e+00
3.921569e+00
3.915427e+00
3.909304e+00
3.903201e+00
3.897116e+00
3.891051e+00
3.885004e+00
3.878976e+00
3.872967e+00
3.866976e+00
3.861004e+00
3.855050e+00
3.849115e+00
3.843198e+00
3.837299e+00
3.831418e+00
3.825555e+00
3.819710e+00
3.813883e+00
3.808073e+00
3.802281e+00
3.796507e+00
3.790751e+00
3.785011e+00
3.779289e+00
3.773585e+00
3.767898e+00
3.762227e+00
3.756574e+00
3.750938e+00
3.745318e+00
3.739716e+00
3.734130e+00
3.728561e+00
3.723008e+00
3.717472e+00
3.711952e+00
3.706449e+00
3.700962e+00
3.695492e+00
3.690037e+00
3.684598e+00
3.679176e+00
3.673769e+00
3.668379e+00
3.663004e+00
3.657644e+00
3.652301e+00
3.646973e+00
3.641661e+00
3.636364e+00
3.631082e+00
3.625816e+00
3.620565e+00
3.615329e+00
3.610108e+00
3.604903e+00
3.599712e+00
3.594536e+00
3.589375e+00
3.584229e+00
3.579098e+00
3.573981e+00
3.568879e+00
3.563792e+00
3.558719e+00
3.553660e+00
3.548616e+00
3.543586e+00
3.538570e+00
3.533569e+00
3.528582e+00
3.523608e+00
3.518649e+00
3.513703e+00
3.508772e+00
3.503854e+00
3.498950e+00
3.494060e+00
3.489184e+00
3.484321e+00
3.479471e+00
3.474635e+00
3.469813e+00
3.465003e+00
3.460208e+00
3.455425e+00
3.450656e+00
3.445899e+00
3.441156e+00
3.436426e+00
3.431709e+00
3.427005e+00
3.422313e+00
3.417635e+00
3.412969e+00
3.408316e+00
3.403676e+00
3.399048e+00
3.394433e+00
3.389831e+00
3.385240e+00
3.380663e+00
3.376097e+00
3.371544e+00
3.367003e+00
3.362475e+00
3.357958e+00
3.353454e+00
3.348962e+00
3.344482e+00
3.340013e+00
3.335557e+00
3.331113e+00
3.326680e+00
3.322259e+00
3.317850e+00
3.313453e+00
3.309067e+00
3.304693e+00
3.300330e+00
3.295979e+00
3.291639e+00
3.287311e+00
3.282994e+00
3.278689e+00
3.274394e+00
3.270111e+00
3.265839e+00
3.261579e+00
3.257329e+00
3.253090e+00
3.248863e+00
3.244646e+00
3.240441e+00
3.236246e+00
3.232062e+00
3.227889e+00
3.223727e+00
3.219575e+00
3.215434e+00
3.211304e+00
3.207184e+00
3.203075e+00
3.198976e+00
3.194888e+00
3.190810e+00
3.186743e+00
3.182686e+00
3.178640e+00
3.174603e+00
3.170577e+00
3.166561e+00
3.162555e+00
3.158560e+00
3.154574e+00
3.150599e+00
3.146633e+00
3.142678e+00
3.138732e+00
3.134796e+00
3.130870e+00
3.126954e+00
3.123048e+00
3.119152e+00
3.115265e+00
3.111388e+00
3.107520e+00
3.103662e+00
3.099814e+00
3.095975e+00
3.092146e+00
3.088326e+00
3.084516e+00
3.080715e+00
3.076923e+00
3.073141e+00
3.069368e+00
3.065604e+00
3.061849e+00
3.058104e+00
3.054368e+00
3.050641e+00
3.046923e+00
3.043214e+00
3.039514e+00
3.035823e+00
3.032141e+00
3.028468e+00
3.024803e+00
3.021148e+00
3.017502e+00
3.013864e+00
3.010235e+00
3.006615e+00
3.003003e+00
2.999400e+00
2.995806e+00
2.992220e+00
2.988643e+00
2.985075e+00
2.981515e+00
2.977963e+00
2.974420e+00
2.970885e+00
2.967359e+00
2.963841e+00
2.960332e+00
2.956830e+00
2.953337e+00
2.949853e+00
2.946376e+00
2.942908e+00
2.939447e+00
2.935995e+00
2.932551e+00
2.929115e+00
2.925688e+00
2.922268e+00
2.918856e+00
2.915452e+00
2.912056e+00
2.908668e+00
2.905288e+00
2.901915e+00
2.898551e+00
2.895194e+00
2.891845e+00
2.888504e+00
2.885170e+00
2.881844e+00
2.878526e+00
2.875216e+00
2.871913e+00
2.868617e+00
2.865330e+00
2.862049e+00
2.858776e+00
2.855511e+00
2.852253e+00
2.849003e+00
2.845760e+00
2.842524e+00
2.839296e+00
2.836075e+00
2.832861e+00
2.829655e+00
2.826456e+00
2.823264e+00
2.820079e+00
2.816901e+00
2.813731e+00
2.810568e+00
2.807412e+00
2.804262e+00
2.801120e+00
2.797985e+00
2.794857e+00
2.791736e+00
2.788622e+00
2.785515e+00
2.782415e+00
2.779322e+00
2.776235e+00
2.773156e+00
2.770083e+00
2.767017e+00
2.763958e+00
2.760906e+00
2.757860e+00
2.754821e+00
2.751789e+00
2.748763e+00
2.745744e+00
2.742732e+00
2.739726e+00
2.736727e+00
2.733734e+00
2.730748e+00
2.727769e+00
2.724796e+00
2.721829e+00
2.718869e+00
2.715915e+00
2.712968e+00
2.710027e+00
2.707093e+00
2.704164e+00
2.701243e+00
2.698327e+00
2.695418e+00
2.692515e+00
2.689618e+00
2.686728e+00
2.683843e+00
2.680965e+00
2.678093e+00
2.675227e+00
2.672368e+00
2.669514e+00
2.666667e+00
2.663825e+00
2.660990e+00
2.658161e+00
2.655337e+00
2.652520e+00
2.649709e+00
2.646903e+00
2.644104e+00
2.641310e+00
2.638522e+00
2.635741e+00
2.632965e+00
2.630195e+00
2.627430e+00
2.624672e+00
2.621919e+00
2.619172e+00
2.616431e+00
2.613696e+00
2.610966e+00
2.608242e+00
2.605524e+00
2.602811e+00
2.600104e+00
2.597403e+00
2.594707e+00
2.592017e+00
2.589332e+00
2.586653e+00
2.583979e+00
2.581311e+00
2.578649e+00
2.575992e+00
2.573340e+00
2.570694e+00
2.568053e+00
2.565418e+00
2.562788e+00
2.560164e+00
2.557545e+00
2.554931e+00
2.552323e+00
2.549720e+00
2.547122e+00
2.544529e+00
2.541942e+00
2.539360e+00
2.536783e+00
2.534212e+00
2.531646e+00
2.529084e+00
2.526529e+00
2.523978e+00
2.521432e+00
2.518892e+00
2.516356e+00
2.513826e+00
2.511301e+00
2.508781e+00
2.506266e+00
2.503756e+00
2.501251e+00
2.498751e+00
2.496256e+00
2.493766e+00
2.491281e+00
2.488800e+00
2.486325e+00
2.483855e+00
2.481390e+00
2.478929e+00
2.476474e+00
2.474023e+00
2.471577e+00
2.469136e+00
2.466700e+00
2.464268e+00
2.461841e+00
2.459420e+00
2.457002e+00
2.454590e+00
2.452182e+00
2.449780e+00
2.447381e+00
2.444988e+00
2.442599e+00
2.440215e+00
2.437835e+00
2.435460e+00
2.433090e+00
2.430724e+00
2.428363e+00
2.426007e+00
2.423655e+00
2.421308e+00
2.418965e+00
2.416626e+00
2.414293e+00
2.411963e+00
2.409639e+00
2.407318e+00
2.405002e+00
2.402691e+00
2.400384e+00
2.398082e+00
2.395783e+00
2.393490e+00
2.391200e+00
2.388915e+00
2.386635e+00
2.384359e+00
2.382087e+00
2.379819e+00
2.377556e+00
2.375297e+00
2.373042e+00
2.370792e+00
2.368546e+00
2.366304e+00
2.364066e+00
2.361833e+00
2.359604e+00
2.357379e+00
2.355158e+00
2.352941e+00
2.350729e+00
2.348520e+00
2.346316e+00
2.344116e+00
2.341920e+00
2.339729e+00
2.337541e+00
2.335357e+00
2.333178e+00
2.331002e+00
2.328831e+00
2.326664e+00
2.324500e+00
2.322341e+00
2.320186e+00
2.318034e+00
2.315887e+00
2.313744e+00
2.311604e+00
2.309469e+00
2.307337e+00
2.305210e+00
2.303086e+00
2.300966e+00
2.298851e+00
2.296739e+00
2.294631e+00
2.292526e+00
2.290426e+00
2.288330e+00
2.286237e+00
2.284148e+00
2.282063e+00
2.279982e+00
2.277904e+00
2.275831e+00
2.273761e+00
2.271695e+00
2.269632e+00
2.267574e+00
2.265519e+00
2.263468e+00
2.261420e+00
2.259376e+00
2.257336e+00
2.255300e+00
2.253267e+00
2.251238e+00
2.249213e+00
2.247191e+00
2.245173e+00
2.243158e+00
2.241147e+00
2.239140e+00
2.237136e+00
2.235136e+00
2.233140e+00
2.231147e+00
2.229157e+00
2.227171e+00
2.225189e+00
2.223210e+00
2.221235e+00
2.219263e+00
2.217295e+00
2.215330e+00
2.213369e+00
2.211411e+00
2.209456e+00
2.207506e+00
2.205558e+00
2.203614e+00
2.201673e+00
2.199736e+00
2.197802e+00
2.195872e+00
2.193945e+00
2.192021e+00
2.190101e+00
2.188184e+00
2.186270e+00
2.184360e+00
2.182453e+00
2.180549e+00
2.178649e+00
2.176752e+00
2.174859e+00
2.172968e+00
2.171081e+00
2.169197e+00
2.167317e+00
2.165440e+00
2.163566e+00
2.161695e+00
2.159827e+00
2.157963e+00
2.156102e+00
2.154244e+00
2.152389e+00
2.150538e+00
2.148689e+00
2.146844e+00
2.145002e+00
2.143163e+00
2.141328e+00
2.139495e+00
2.137666e+00
2.135839e+00
2.134016e+00
2.132196e+00
2.130379e+00
2.128565e+00
2.126755e+00
2.124947e+00
2.123142e+00
2.121341e+00
2.119542e+00
2.117747e+00
2.115954e+00
2.114165e+00
2.112379e+00
2.110595e+00
2.108815e+00
2.107038e+00
2.105263e+00
2.103492e+00
2.101723e+00
2.099958e+00
2.098196e+00
2.096436e+00
2.094680e+00
2.092926e+00
2.091175e+00
2.089427e+00
2.087683e+00
2.085941e+00
2.084202e+00
2.082466e+00
2.080732e+00
2.079002e+00
2.077275e+00
2.075550e+00
2.073828e+00
2.072109e+00
2.070393e+00
2.068680e+00
2.066970e+00
2.065262e+00
2.063558e+00
2.061856e+00
2.060157e+00
2.058460e+00
2.056767e+00
2.055076e+00
2.053388e+00
2.051703e+00
2.050021e+00
2.048341e+00
2.046664e+00
2.044990e+00
2.043318e+00
2.041650e+00
2.039984e+00
2.038320e+00
2.036660e+00
2.035002e+00
2.033347e+00
2.031694e+00
2.030045e+00
2.028398e+00
2.026753e+00
2.025111e+00
2.023472e+00
2.021836e+00
2.020202e+00
2.018571e+00
2.016942e+00
2.015316e+00
2.013693e+00
2.012072e+00
2.010454e+00
2.008839e+00
2.007226e+00
2.005616e+00
2.004008e+00
2.002403e+00
2.000800e+00
);

waveHeights
1000
(
3.226901e-29
8.797958e-29
2.351715e-28
6.165892e-28
1.586395e-27
4.007020e-27
9.940590e-27
2.423057e-26
5.805659e-26
1.367876e-25
3.170410e-25
7.231356e-25
1.623742e-24
3.590550e-24
7.821694e-24
1.679121e-23
3.553420e-23
7.415358e-23
1.526417e-22
3.100282e-22
6.215029e-22
1.230053e-21
2.404165e-21
4.641760e-21
8.855114e-21
1.669594e-20
3.112021e-20
5.735820e-20
1.045620e-19
1.885730e-19
3.365201e-19
5.943811e-19
1.039287e-18
1.799346e-18
3.085261e-18
5.240282e-18
8.818372e-18
1.470539e-17
2.430524e-17
3.982339e-17
6.469474e-17
1.042240e-16
1.665360e-16
2.639747e-16
4.151461e-16
6.478770e-16
1.003470e-15
1.542773e-15
2.354775e-15
3.568693e-15
5.370844e-15
8.028035e-15
1.191976e-14
1.758226e-14
2.576834e-14
3.752814e-14
5.431750e-14
7.814243e-14
1.117504e-13
1.588826e-13
2.246038e-13
3.157324e-13
4.413963e-13
6.137499e-13
8.488907e-13
1.168028e-12
1.598963e-12
2.177954e-12
2.952060e-12
3.982058e-12
5.346071e-12
7.144056e-12
9.503319e-12
1.258527e-11
1.659367e-11
2.178460e-11
2.847861e-11
3.707516e-11
4.807015e-11
6.207663e-11
7.984954e-11
1.023149e-10
1.306045e-10
1.660962e-10
2.104611e-10
2.657195e-10
3.343043e-10
4.191357e-10
5.237066e-10
6.521812e-10
8.095073e-10
1.001545e-09
1.235214e-09
1.518657e-09
1.861429e-09
2.274708e-09
2.771530e-09
3.367059e-09
4.078878e-09
4.927318e-09
5.935829e-09
7.131377e-09
8.544896e-09
1.021177e-08
1.217238e-08
1.447268e-08
1.716485e-08
2.030798e-08
2.396884e-08
2.822267e-08
3.315409e-08
3.885806e-08
4.544083e-08
5.302111e-08
6.173118e-08
7.171817e-08
8.314531e-08
9.619339e-08
1.110622e-07
1.279722e-07
1.471658e-07
1.689095e-07
1.934955e-07
2.212435e-07
2.525029e-07
2.876544e-07
3.271125e-07
3.713275e-07
4.207878e-07
4.760221e-07
5.376018e-07
6.061436e-07
6.823117e-07
7.668203e-07
8.604366e-07
9.639826e-07
1.078339e-06
1.204445e-06
1.343306e-06
1.495990e-06
1.663636e-06
1.847453e-06
2.048722e-06
2.268802e-06
2.509132e-06
2.771228e-06
3.056692e-06
3.367214e-06
3.704567e-06
4.070619e-06
4.467328e-06
4.896746e-06
5.361022e-06
5.862403e-06
6.403234e-06
6.985963e-06
7.613137e-06
8.287409e-06
9.011535e-06
9.788375e-06
1.062090e-05
1.151217e-05
1.246538e-05
1.348380e-05
1.457083e-05
1.572995e-05
1.696478e-05
1.827902e-05
1.967647e-05
2.116104e-05
2.273675e-05
2.440769e-05
2.617808e-05
2.805221e-05
3.003447e-05
3.212936e-05
3.434142e-05
3.667532e-05
3.913579e-05
4.172764e-05
4.445574e-05
4.732507e-05
5.034063e-05
5.350751e-05
5.683084e-05
6.031584e-05
6.396773e-05
6.779180e-05
7.179339e-05
7.597785e-05
8.035058e-05
8.491700e-05
8.968253e-05
9.465263e-05
9.983276e-05
1.052284e-04
1.108449e-04
1.166879e-04
1.227627e-04
1.290748e-04
1.356295e-04
1.424322e-04
1.494882e-04
1.568029e-04
1.643815e-04
1.722291e-04
1.803509e-04
1.887520e-04
1.974373e-04
2.064118e-04
2.156803e-04
2.252476e-04
2.351183e-04
2.452971e-04
2.557884e-04
2.665965e-04
2.777258e-04
2.891805e-04
3.009644e-04
3.130816e-04
3.255359e-04
3.383309e-04
3.514702e-04
3.649571e-04
3.787948e-04
3.929867e-04
4.075355e-04
4.224441e-04
4.377152e-04
4.533513e-04
4.693547e-04
4.857278e-04
5.024724e-04
5.195906e-04
5.370839e-04
5.549541e-04
5.732024e-04
5.918301e-04
6.108383e-04
6.302278e-04
6.499994e-04
6.701536e-04
6.906908e-04
7.116113e-04
7.329150e-04
7.546018e-04
7.766715e-04
7.991236e-04
8.219575e-04
8.451724e-04
8.687673e-04
8.927410e-04
9.170925e-04
9.418201e-04
9.669223e-04
9.923973e-04
1.018243e-03
1.044458e-03
1.071039e-03
1.097985e-03
1.125292e-03
1.152959e-03
1.180982e-03
1.209358e-03
1.238084e-03
1.267157e-03
1.296574e-03
1.326332e-03
1.356426e-03
1.386853e-03
1.417608e-03
1.448689e-03
1.480091e-03
1.511810e-03
1.543842e-03
1.576181e-03
1.608825e-03
1.641767e-03
1.675004e-03
1.708530e-03
1.742341e-03
1.776432e-03
1.810798e-03
1.845433e-03
1.880333e-03
1.915492e-03
1.950905e-03
1.986567e-03
2.022472e-03
2.058614e-03
2.094989e-03
2.131590e-03
2.168412e-03
2.205449e-03
2.242696e-03
2.280146e-03
2.317795e-03
2.355636e-03
2.393663e-03
2.431870e-03
2.470252e-03
2.508803e-03
2.547516e-03
2.586386e-03
2.625408e-03
2.664574e-03
2.703879e-03
2.743318e-03
2.782884e-03
2.822571e-03
2.862374e-03
2.902286e-03
2.942302e-03
2.982416e-03
3.022622e-03
3.062915e-03
3.103288e-03
3.143736e-03
3.184253e-03
3.224833e-03
3.265472e-03
3.306163e-03
3.346901e-03
3.387680e-03
3.428495e-03
3.469341e-03
3.510213e-03
3.551104e-03
3.592011e-03
3.632928e-03
3.673849e-03
3.714771e-03
3.755687e-03
3.796594e-03
3.837486e-03
3.878360e-03
3.919210e-03
3.960032e-03
4.000821e-03
4.041574e-03
4.082286e-03
4.122953e-03
4.163572e-03
4.204138e-03
4.244647e-03
4.285097e-03
4.325483e-03
4.365802e-03
4.406052e-03
4.446228e-03
4.486328e-03
4.526349e-03
4.566289e-03
4.606144e-03
4.645912e-03
4.685592e-03
4.725181e-03
4.764676e-03
4.804077e-03
4.843382e-03
4.882589e-03
4.921696e-03
4.960704e-03
4.999610e-03
5.038414e-03
5.077116e-03
5.115715e-03
5.154211e-03
5.192605e-03
5.230896e-03
5.269084e-03
5.307171e-03
5.345158e-03
5.383045e-03
5.420834e-03
5.458527e-03
5.496125e-03
5.533631e-03
5.571046e-03
5.608373e-03
5.645616e-03
5.682776e-03
5.719858e-03
5.756866e-03
5.793802e-03
5.830671e-03
5.867478e-03
5.904227e-03
5.940923e-03
5.977571e-03
6.014178e-03
6.050748e-03
6.087289e-03
6.123805e-03
6.160305e-03
6.196795e-03
6.233283e-03
6.269776e-03
6.306282e-03
6.342809e-03
6.379366e-03
6.415962e-03
6.452606e-03
6.489308e-03
6.526077e-03
6.562924e-03
6.599858e-03
6.636891e-03
6.674034e-03
6.711298e-03
6.748695e-03
6.786236e-03
6.823934e-03
6.861802e-03
6.899851e-03
6.938097e-03
6.976550e-03
7.015227e-03
7.054139e-03
7.093302e-03
7.132730e-03
7.172437e-03
7.212439e-03
7.252750e-03
7.293386e-03
7.334362e-03
7.375695e-03
7.417399e-03
7.459491e-03
7.501987e-03
7.544904e-03
7.588258e-03
7.632065e-03
7.676343e-03
7.721107e-03
7.766375e-03
7.812164e-03
7.858490e-03
7.905370e-03
7.952820e-03
8.000859e-03
8.049501e-03
8.098764e-03
8.148664e-03
8.199218e-03
8.250441e-03
8.302349e-03
8.354958e-03
8.408283e-03
8.462339e-03
8.517140e-03
8.572701e-03
8.629036e-03
8.686158e-03
8.744079e-03
8.802813e-03
8.862370e-03
8.922762e-03
8.983999e-03
9.046091e-03
9.109047e-03
9.172874e-03
9.237580e-03
9.303172e-03
9.369654e-03
9.437031e-03
9.505306e-03
9.574481e-03
9.644557e-03
9.715534e-03
9.787410e-03
9.860183e-03
9.933846e-03
1.000840e-02
1.008382e-02
1.016012e-02
1.023728e-02
1.031528e-02
1.039412e-02
1.047377e-02
1.055423e-02
1.063546e-02
1.071745e-02
1.080017e-02
1.088361e-02
1.096772e-02
1.105249e-02
1.113788e-02
1.122385e-02
1.131037e-02
1.139741e-02
1.148491e-02
1.157284e-02
1.166115e-02
1.174979e-02
1.183872e-02
1.192788e-02
1.201721e-02
1.210667e-02
1.219618e-02
1.228570e-02
1.237514e-02
1.246446e-02
1.255358e-02
1.264243e-02
1.273095e-02
1.281905e-02
1.290666e-02
1.299371e-02
1.308011e-02
1.316579e-02
1.325066e-02
1.333465e-02
1.341767e-02
1.349963e-02
1.358045e-02
1.366005e-02
1.373833e-02
1.381522e-02
1.389062e-02
1.396446e-02
1.403664e-02
1.410707e-02
1.417568e-02
1.424239e-02
1.430710e-02
1.436974e-02
1.443022e-02
1.448848e-02
1.454444e-02
1.459801e-02
1.464914e-02
1.469775e-02
1.474377e-02
1.478716e-02
1.482783e-02
1.486575e-02
1.490085e-02
1.493309e-02
1.496243e-02
1.498882e-02
1.501222e-02
1.503261e-02
1.504995e-02
1.506423e-02
1.507541e-02
1.508350e-02
1.508847e-02
1.509037e-02
1.508967e-02
1.508689e-02
1.508213e-02
1.507542e-02
1.506674e-02
1.505611e-02
1.504355e-02
1.502906e-02
1.501266e-02
1.499437e-02
1.497421e-02
1.495219e-02
1.492834e-02
1.490268e-02
1.487523e-02
1.484602e-02
1.481508e-02
1.478243e-02
1.474811e-02
1.471214e-02
1.467456e-02
1.463540e-02
1.459470e-02
1.455249e-02
1.450880e-02
1.446368e-02
1.441716e-02
1.436928e-02
1.432008e-02
1.426960e-02
1.421788e-02
1.416496e-02
1.411088e-02
1.405569e-02
1.399943e-02
1.394213e-02
1.388385e-02
1.382463e-02
1.376450e-02
1.370351e-02
1.364171e-02
1.357914e-02
1.351583e-02
1.345184e-02
1.338721e-02
1.332197e-02
1.325617e-02
1.318985e-02
1.312305e-02
1.305581e-02
1.298818e-02
1.292018e-02
1.285187e-02
1.278328e-02
1.271444e-02
1.264539e-02
1.257618e-02
1.250682e-02
1.243737e-02
1.236786e-02
1.229831e-02
1.222876e-02
1.215924e-02
1.208978e-02
1.202042e-02
1.195118e-02
1.188209e-02
1.181318e-02
1.174447e-02
1.167599e-02
1.160777e-02
1.153982e-02
1.147218e-02
1.140486e-02
1.133789e-02
1.127128e-02
1.120506e-02
1.113925e-02
1.107386e-02
1.100890e-02
1.094441e-02
1.088038e-02
1.081684e-02
1.075380e-02
1.069128e-02
1.062928e-02
1.056781e-02
1.050690e-02
1.044654e-02
1.038675e-02
1.032754e-02
1.026891e-02
1.021088e-02
1.015344e-02
1.009660e-02
1.004038e-02
9.984772e-03
9.929782e-03
9.875414e-03
9.821673e-03
9.768561e-03
9.716079e-03
9.664230e-03
9.613014e-03
9.562433e-03
9.512486e-03
9.463173e-03
9.414495e-03
9.366449e-03
9.319034e-03
9.272249e-03
9.226092e-03
9.180560e-03
9.135650e-03
9.091359e-03
9.047684e-03
9.004621e-03
8.962166e-03
8.920316e-03
8.879065e-03
8.838409e-03
8.798343e-03
8.758862e-03
8.719961e-03
8.681634e-03
8.643876e-03
8.606680e-03
8.570042e-03
8.533954e-03
8.498411e-03
8.463406e-03
8.428933e-03
8.394986e-03
8.361557e-03
8.328640e-03
8.296228e-03
8.264314e-03
8.232892e-03
8.201954e-03
8.171493e-03
8.141503e-03
8.111976e-03
8.082904e-03
8.054282e-03
8.026102e-03
7.998356e-03
7.971037e-03
7.944138e-03
7.917653e-03
7.891574e-03
7.865893e-03
7.840604e-03
7.815699e-03
7.791172e-03
7.767016e-03
7.743223e-03
7.719786e-03
7.696700e-03
7.673956e-03
7.651548e-03
7.629470e-03
7.607714e-03
7.586274e-03
7.565143e-03
7.544315e-03
7.523784e-03
7.503543e-03
7.483586e-03
7.463906e-03
7.444498e-03
7.425355e-03
7.406471e-03
7.387841e-03
7.369458e-03
7.351317e-03
7.333412e-03
7.315738e-03
7.298289e-03
7.281060e-03
7.264044e-03
7.247238e-03
7.230635e-03
7.214232e-03
7.198022e-03
7.182000e-03
7.166163e-03
7.150505e-03
7.135021e-03
7.119708e-03
7.104560e-03
7.089573e-03
7.074743e-03
7.060065e-03
7.045536e-03
7.031151e-03
7.016907e-03
7.002799e-03
6.988824e-03
6.974978e-03
6.961257e-03
6.947658e-03
6.934178e-03
6.920812e-03
6.907558e-03
6.894413e-03
6.881372e-03
6.868434e-03
6.855595e-03
6.842853e-03
6.830203e-03
6.817644e-03
6.805174e-03
6.792788e-03
6.780485e-03
6.768262e-03
6.756117e-03
6.744048e-03
6.732051e-03
6.720125e-03
6.708268e-03
6.696478e-03
6.684752e-03
6.673088e-03
6.661486e-03
6.649942e-03
6.638454e-03
6.627022e-03
6.615644e-03
6.604317e-03
6.593041e-03
6.581813e-03
6.570633e-03
6.559498e-03
6.548407e-03
6.537360e-03
6.526354e-03
6.515388e-03
6.504462e-03
6.493574e-03
6.482723e-03
6.471907e-03
6.461126e-03
6.450379e-03
6.439665e-03
6.428983e-03
6.418331e-03
6.407709e-03
6.397117e-03
6.386553e-03
6.376016e-03
6.365507e-03
6.355023e-03
6.344565e-03
6.334132e-03
6.323722e-03
6.313337e-03
6.302974e-03
6.292634e-03
6.282315e-03
6.272018e-03
6.261742e-03
6.251486e-03
6.241250e-03
6.231034e-03
6.220837e-03
6.210658e-03
6.200498e-03
6.190356e-03
6.180232e-03
6.170125e-03
6.160035e-03
6.149961e-03
6.139905e-03
6.129864e-03
6.119840e-03
6.109831e-03
6.099838e-03
6.089860e-03
6.079897e-03
6.069949e-03
6.060016e-03
6.050098e-03
6.040194e-03
6.030304e-03
6.020429e-03
6.010567e-03
6.000720e-03
5.990886e-03
5.981066e-03
5.971260e-03
5.961467e-03
5.951687e-03
5.941921e-03
5.932168e-03
5.922429e-03
5.912702e-03
5.902989e-03
5.893289e-03
5.883602e-03
5.873927e-03
5.864266e-03
5.854618e-03
5.844982e-03
5.835359e-03
5.825749e-03
5.816152e-03
5.806568e-03
5.796996e-03
5.787438e-03
5.777892e-03
5.768358e-03
5.758838e-03
5.749330e-03
5.739835e-03
5.730353e-03
5.720883e-03
5.711427e-03
5.701983e-03
5.692551e-03
5.683133e-03
5.673727e-03
5.664335e-03
5.654955e-03
5.645588e-03
5.636233e-03
5.626892e-03
5.617564e-03
5.608248e-03
5.598945e-03
5.589656e-03
5.580379e-03
5.571115e-03
5.561865e-03
5.552627e-03
5.543403e-03
5.534191e-03
5.524993e-03
5.515808e-03
5.506635e-03
5.497477e-03
5.488331e-03
5.479198e-03
5.470079e-03
5.460973e-03
5.451880e-03
5.442801e-03
5.433735e-03
5.424682e-03
5.415643e-03
5.406617e-03
5.397604e-03
5.388605e-03
5.379619e-03
5.370647e-03
5.361689e-03
5.352743e-03
5.343812e-03
5.334894e-03
5.325989e-03
5.317098e-03
5.308221e-03
5.299358e-03
5.290508e-03
5.281671e-03
5.272849e-03
5.264040e-03
5.255245e-03
5.246463e-03
5.237696e-03
5.228942e-03
5.220202e-03
5.211476e-03
5.202763e-03
5.194064e-03
5.185380e-03
5.176709e-03
5.168052e-03
5.159409e-03
5.150779e-03
5.142164e-03
5.133563e-03
5.124975e-03
5.116401e-03
5.107842e-03
5.099296e-03
5.090765e-03
5.082247e-03
5.073743e-03
5.065254e-03
5.056778e-03
5.048316e-03
5.039869e-03
5.031435e-03
5.023015e-03
5.014610e-03
5.006219e-03
4.997841e-03
4.989478e-03
4.981128e-03
4.972793e-03
4.964472e-03
4.956165e-03
4.947872e-03
4.939593e-03
4.931328e-03
4.923078e-03
4.914841e-03
4.906619e-03
4.898410e-03
4.890216e-03
4.882036e-03
4.873869e-03
4.865717e-03
4.857580e-03
4.849456e-03
4.841346e-03
4.833250e-03
4.825169e-03
4.817101e-03
4.809048e-03
4.801009e-03
4.792984e-03
4.784973e-03
4.776976e-03
4.768993e-03
4.761024e-03
4.753069e-03
4.745128e-03
4.737202e-03
4.729289e-03
4.721391e-03
4.713506e-03
4.705636e-03
4.697779e-03
4.689937e-03
4.682109e-03
4.674294e-03
4.666494e-03
4.658708e-03
4.650935e-03
4.643177e-03
4.635433e-03
4.627702e-03
4.619986e-03
4.612284e-03
4.604595e-03
4.596921e-03
4.589260e-03
4.581613e-03
4.573981e-03
4.566362e-03
);

wavePhases
1000
(
2.620227e+00
4.525932e+00
7.186382e-04
1.899612e+00
9.220945e-01
5.801805e-01
1.170307e+00
2.171222e+00
2.492964e+00
3.385485e+00
2.633877e+00
4.305361e+00
1.284611e+00
5.517375e+00
1.720813e-01
4.212672e+00
2.622003e+00
3.510352e+00
8.820771e-01
1.244708e+00
5.031227e+00
6.083767e+00
1.969302e+00
4.349991e+00
5.506515e+00
5.620979e+00
5.343485e-01
2.453884e-01
1.067076e+00
5.517532e+00
6.179314e-01
2.645897e+00
6.018597e+00
3.349976e+00
4.347192e+00
1.982443e+00
4.313413e+00
5.244108e+00
1.149086e-01
4.713296e+00
6.213197e+00
4.700863e+00
1.762082e+00
4.959188e+00
6.485881e-01
2.814198e+00
5.708874e+00
1.844832e+00
1.808146e+00
8.169936e-01
1.216862e-01
4.265249e+00
1.329699e+00
1.668479e+00
3.088645e+00
3.352868e-01
3.607287e+00
9.219228e-01
3.702716e+00
4.396711e+00
6.429862e-01
2.601590e+00
4.363045e+00
2.602365e+00
3.138668e-01
3.367136e+00
4.170745e+00
3.235144e+00
5.935064e+00
3.685434e+00
5.676242e+00
8.637790e-01
8.750991e-01
5.072989e+00
2.498677e+00
1.038951e+00
5.827708e+00
2.185077e+00
4.717492e+00
4.561580e+00
5.549976e+00
3.918648e+00
4.718310e+00
2.192193e+00
1.696007e+00
5.629019e+00
2.689776e+00
6.062269e+00
4.168526e+00
3.906229e+00
7.209702e-01
5.965817e+00
2.826881e+00
3.634129e+00
2.564399e+00
1.489284e+00
5.676101e+00
3.604535e+00
1.803480e-02
3.877636e+00
2.052370e+00
3.311604e+00
5.566538e+00
2.244792e+00
5.708495e+00
3.916687e+00
9.940780e-02
5.839826e+00
4.341033e+00
6.266364e+00
1.082847e+00
8.616493e-01
5.859670e+00
4.378238e+00
4.146913e-01
4.746714e+00
4.736744e+00
5.799534e+00
4.470642e+00
7.808175e-01
1.249106e-01
1.646885e-01
1.778549e-01
1.546990e+00
5.403715e+00
3.385575e+00
3.473483e+00
5.290636e+00
7.802039e-01
1.754163e+00
3.680434e+00
6.092150e+00
3.525057e+00
1.171644e-01
5.030523e+00
1.463821e+00
5.071192e+00
2.437000e+00
5.425793e+00
4.694304e+00
3.494960e+00
8.573735e-01
3.764739e-01
7.624234e-01
2.799277e-01
6.754055e-01
1.418174e+00
4.479842e+00
3.516806e+00
7.889155e-02
4.522277e-01
6.077576e+00
3.569480e+00
1.277329e+00
1.585409e+00
4.673596e+00
1.227920e+00
3.652786e+00
6.094815e+00
5.320782e+00
1.507008e+00
3.102447e+00
3.895297e+00
5.208641e+00
9.851494e-01
1.167177e-01
4.399621e-01
3.055796e+00
3.809680e+00
3.574199e+00
1.994047e+00
6.211658e+00
3.642647e+00
2.388497e+00
3.461710e+00
4.683074e+00
4.204914e+00
1.664539e+00
4.167941e-01
2.325308e+00
3.956632e+00
1.320562e+00
4.729703e+00
4.180610e-01
1.635608e+00
5.056422e+00
1.215383e+00
4.017851e+00
3.296601e+00
5.810740e+00
1.654342e+00
4.144458e-01
4.618556e+00
4.851738e+00
5.703975e+00
5.855753e+00
8.766032e-02
1.472540e+00
3.875333e+00
5.962845e+00
5.970133e+00
3.497555e+00
5.752924e+00
4.031079e+00
2.450491e+00
3.053569e+00
3.796995e+00
3.452911e+00
5.819370e+00
5.772572e+00
2.481077e+00
6.052357e+00
1.092996e+00
7.937518e-01
8.487274e-01
3.177169e+00
1.352443e-01
5.956273e+00
5.196920e+00
9.436704e-02
1.107074e+00
2.086417e+00
8.230775e-01
5.086180e+00
2.166044e+00
5.906870e+00
3.656903e+00
5.521864e+00
5.307623e+00
5.688748e+00
2.889513e+00
3.432798e+00
5.017774e+00
1.795224e+00
3.080354e+00